<?xml version="1.0" encoding="UTF-8"?>

<!-- generated on 2025-08-26 21:41:25.960184 by randomTrips.py v1_24_0+0000-b72eb3fabc8
<configuration>
    <net-file value="city1.net.xml"/>
    <output-trip-file value="city1.rou.xml"/>
    <fringe-factor value="10"/>
    <end value="36000.0"/>
    <period value="5.0"/>
</configuration>
-->

<routes xmlns:xsi="http://www.w3.org/2001/XMLSchema-instance" xsi:noNamespaceSchemaLocation="http://sumo.dlr.de/xsd/routes_file.xsd">
    <trip id="0" depart="0.00" from="gneE19" to="-gneE0"/>
    <trip id="1" depart="5.00" from="-gneE31" to="-gneE20"/>
    <trip id="2" depart="10.00" from="gneE22" to="gneE29"/>
    <trip id="3" depart="15.00" from="gneE38" to="-gneE13"/>
    <trip id="4" depart="20.00" from="-gneE30" to="gneE1"/>
    <trip id="5" depart="25.00" from="-gneE13" to="-gneE20"/>
    <trip id="6" depart="30.00" from="gneE19" to="gneE18"/>
    <trip id="7" depart="35.00" from="-gneE30" to="gneE27"/>
    <trip id="8" depart="40.00" from="gneE35" to="-gneE0"/>
    <trip id="9" depart="45.00" from="gneE35" to="gneE29"/>
    <trip id="10" depart="50.00" from="-gneE33" to="-gneE19"/>
    <trip id="11" depart="55.00" from="-gneE27" to="-gneE17"/>
    <trip id="12" depart="60.00" from="gneE35" to="gneE27"/>
    <trip id="13" depart="65.00" from="gneE35" to="gneE30"/>
    <trip id="14" depart="70.00" from="gneE0" to="gneE5"/>
    <trip id="15" depart="75.00" from="-gneE36" to="gneE2"/>
    <trip id="16" depart="80.00" from="gneE35" to="gneE27"/>
    <trip id="17" depart="85.00" from="gneE38" to="gneE25"/>
    <trip id="18" depart="90.00" from="gneE20" to="-gneE0"/>
    <trip id="19" depart="95.00" from="-gneE25" to="-gneE22"/>
    <trip id="20" depart="100.00" from="gneE19" to="-gneE38"/>
    <trip id="21" depart="105.00" from="-gneE36" to="-gneE20"/>
    <trip id="22" depart="110.00" from="gneE19" to="gneE27"/>
    <trip id="23" depart="115.00" from="-gneE29" to="gneE30"/>
    <trip id="24" depart="120.00" from="-gneE29" to="-gneE38"/>
    <trip id="25" depart="125.00" from="gneE8" to="gneE27"/>
    <trip id="26" depart="130.00" from="gneE0" to="gneE29"/>
    <trip id="27" depart="135.00" from="gneE35" to="gneE31"/>
    <trip id="28" depart="140.00" from="-gneE30" to="-gneE0"/>
    <trip id="29" depart="145.00" from="-gneE33" to="-gneE3"/>
    <trip id="30" depart="150.00" from="gneE38" to="-gneE35"/>
    <trip id="31" depart="155.00" from="gneE19" to="-gneE38"/>
    <trip id="32" depart="160.00" from="-gneE30" to="-gneE24"/>
    <trip id="33" depart="165.00" from="gneE13" to="gneE36"/>
    <trip id="34" depart="170.00" from="-gneE36" to="-gneE20"/>
    <trip id="35" depart="175.00" from="gneE9" to="gneE10"/>
    <trip id="36" depart="180.00" from="-gneE27" to="-gneE0"/>
    <trip id="37" depart="185.00" from="-gneE27" to="gneE27"/>
    <trip id="38" depart="190.00" from="-gneE22" to="-gneE38"/>
    <trip id="39" depart="195.00" from="gneE9" to="gneE14"/>
    <trip id="40" depart="200.00" from="gneE5" to="gneE36"/>
    <trip id="41" depart="205.00" from="-gneE10" to="gneE30"/>
    <trip id="42" depart="210.00" from="gneE20" to="gneE17"/>
    <trip id="43" depart="215.00" from="-gneE30" to="gneE27"/>
    <trip id="44" depart="220.00" from="gneE0" to="-gneE20"/>
    <trip id="45" depart="225.00" from="-gneE33" to="gneE27"/>
    <trip id="46" depart="230.00" from="gneE19" to="-gneE19"/>
    <trip id="47" depart="235.00" from="-gneE1" to="-gneE35"/>
    <trip id="48" depart="240.00" from="gneE38" to="gneE33"/>
    <trip id="49" depart="245.00" from="-gneE33" to="-gneE0"/>
    <trip id="50" depart="250.00" from="-gneE26" to="-gneE7"/>
    <trip id="51" depart="255.00" from="-gneE23" to="gneE30"/>
    <trip id="52" depart="260.00" from="-gneE5" to="gneE2"/>
    <trip id="53" depart="265.00" from="-gneE30" to="gneE36"/>
    <trip id="54" depart="270.00" from="gneE0" to="gneE30"/>
    <trip id="55" depart="275.00" from="-gneE29" to="-gneE35"/>
    <trip id="56" depart="280.00" from="gneE9" to="gneE28"/>
    <trip id="57" depart="285.00" from="-gneE27" to="-gneE20"/>
    <trip id="58" depart="290.00" from="-gneE33" to="gneE27"/>
    <trip id="59" depart="295.00" from="-gneE30" to="-gneE20"/>
    <trip id="60" depart="300.00" from="-gneE24" to="gneE27"/>
    <trip id="61" depart="305.00" from="-gneE30" to="gneE36"/>
    <trip id="62" depart="310.00" from="gneE38" to="-gneE11"/>
    <trip id="63" depart="315.00" from="-gneE30" to="gneE29"/>
    <trip id="64" depart="320.00" from="-gneE3" to="-gneE19"/>
    <trip id="65" depart="325.00" from="-gneE5" to="gneE32"/>
    <trip id="66" depart="330.00" from="gneE35" to="-gneE20"/>
    <trip id="67" depart="335.00" from="gneE21" to="gneE29"/>
    <trip id="68" depart="340.00" from="gneE7" to="-gneE17"/>
    <trip id="69" depart="345.00" from="-gneE36" to="-gneE35"/>
    <trip id="70" depart="350.00" from="gneE38" to="-gneE24"/>
    <trip id="71" depart="355.00" from="gneE0" to="-gneE0"/>
    <trip id="72" depart="360.00" from="gneE9" to="gneE33"/>
    <trip id="73" depart="365.00" from="gneE35" to="-gneE2"/>
    <trip id="74" depart="370.00" from="-gneE7" to="-gneE20"/>
    <trip id="75" depart="375.00" from="-gneE36" to="-gneE1"/>
    <trip id="76" depart="380.00" from="-gneE36" to="gneE7"/>
    <trip id="77" depart="385.00" from="-gneE30" to="gneE32"/>
    <trip id="78" depart="390.00" from="-gneE40" to="-gneE39"/>
    <trip id="79" depart="395.00" from="gneE0" to="gneE30"/>
    <trip id="80" depart="400.00" from="-gneE29" to="-gneE35"/>
    <trip id="81" depart="405.00" from="gneE4" to="gneE25"/>
    <trip id="82" depart="410.00" from="gneE0" to="gneE30"/>
    <trip id="83" depart="415.00" from="gneE0" to="gneE36"/>
    <trip id="84" depart="420.00" from="-gneE25" to="-gneE20"/>
    <trip id="85" depart="425.00" from="gneE17" to="gneE29"/>
    <trip id="86" depart="430.00" from="-gneE30" to="-gneE19"/>
    <trip id="87" depart="435.00" from="gneE38" to="-gneE24"/>
    <trip id="88" depart="440.00" from="gneE17" to="gneE27"/>
    <trip id="89" depart="445.00" from="-gneE29" to="gneE30"/>
    <trip id="90" depart="450.00" from="-gneE30" to="-gneE38"/>
    <trip id="91" depart="455.00" from="gneE20" to="-gneE35"/>
    <trip id="92" depart="460.00" from="-gneE33" to="gneE30"/>
    <trip id="93" depart="465.00" from="gneE9" to="gneE9"/>
    <trip id="94" depart="470.00" from="-gneE24" to="-gneE20"/>
    <trip id="95" depart="475.00" from="gneE38" to="gneE36"/>
    <trip id="96" depart="480.00" from="-gneE36" to="-gneE19"/>
    <trip id="97" depart="485.00" from="gneE35" to="gneE29"/>
    <trip id="98" depart="490.00" from="gneE19" to="gneE7"/>
    <trip id="99" depart="495.00" from="gneE19" to="-gneE0"/>
    <trip id="100" depart="500.00" from="gneE35" to="-gneE35"/>
    <trip id="101" depart="505.00" from="-gneE27" to="-gneE19"/>
    <trip id="102" depart="510.00" from="-gneE30" to="gneE27"/>
    <trip id="103" depart="515.00" from="gneE20" to="-gneE20"/>
    <trip id="104" depart="520.00" from="-gneE8" to="gneE36"/>
    <trip id="105" depart="525.00" from="-gneE1" to="gneE30"/>
    <trip id="106" depart="530.00" from="-gneE24" to="gneE36"/>
    <trip id="107" depart="535.00" from="gneE38" to="gneE18"/>
    <trip id="108" depart="540.00" from="gneE35" to="gneE26"/>
    <trip id="109" depart="545.00" from="-gneE28" to="-gneE19"/>
    <trip id="110" depart="550.00" from="-gneE33" to="gneE36"/>
    <trip id="111" depart="555.00" from="gneE35" to="gneE36"/>
    <trip id="112" depart="560.00" from="gneE38" to="-gneE20"/>
    <trip id="113" depart="565.00" from="-gneE30" to="-gneE18"/>
    <trip id="114" depart="570.00" from="-gneE36" to="gneE27"/>
    <trip id="115" depart="575.00" from="gneE38" to="gneE5"/>
    <trip id="116" depart="580.00" from="gneE35" to="gneE36"/>
    <trip id="117" depart="585.00" from="-gneE13" to="gneE30"/>
    <trip id="118" depart="590.00" from="gneE35" to="gneE36"/>
    <trip id="119" depart="595.00" from="gneE38" to="gneE36"/>
    <trip id="120" depart="600.00" from="-gneE30" to="gneE33"/>
    <trip id="121" depart="605.00" from="gneE35" to="-gneE21"/>
    <trip id="122" depart="610.00" from="-gneE13" to="-gneE20"/>
    <trip id="123" depart="615.00" from="-gneE33" to="gneE36"/>
    <trip id="124" depart="620.00" from="gneE19" to="-gneE38"/>
    <trip id="125" depart="625.00" from="gneE6" to="gneE17"/>
    <trip id="126" depart="630.00" from="gneE4" to="-gneE20"/>
    <trip id="127" depart="635.00" from="gneE21" to="-gneE35"/>
    <trip id="128" depart="640.00" from="gneE19" to="gneE10"/>
    <trip id="129" depart="645.00" from="-gneE36" to="gneE25"/>
    <trip id="130" depart="650.00" from="-gneE30" to="gneE29"/>
    <trip id="131" depart="655.00" from="gneE0" to="gneE30"/>
    <trip id="132" depart="660.00" from="-gneE36" to="-gneE11"/>
    <trip id="133" depart="665.00" from="gneE2" to="-gneE35"/>
    <trip id="134" depart="670.00" from="-gneE33" to="gneE34"/>
    <trip id="135" depart="675.00" from="gneE20" to="-gneE35"/>
    <trip id="136" depart="680.00" from="-gneE36" to="-gneE35"/>
    <trip id="137" depart="685.00" from="gneE38" to="gneE27"/>
    <trip id="138" depart="690.00" from="-gneE33" to="gneE2"/>
    <trip id="139" depart="695.00" from="-gneE5" to="gneE36"/>
    <trip id="140" depart="700.00" from="gneE35" to="-gneE20"/>
    <trip id="141" depart="705.00" from="-gneE26" to="gneE11"/>
    <trip id="142" depart="710.00" from="gneE19" to="-gneE35"/>
    <trip id="143" depart="715.00" from="gneE35" to="gneE30"/>
    <trip id="144" depart="720.00" from="gneE20" to="-gneE20"/>
    <trip id="145" depart="725.00" from="-gneE29" to="-gneE0"/>
    <trip id="146" depart="730.00" from="-gneE30" to="-gneE5"/>
    <trip id="147" depart="735.00" from="gneE38" to="-gneE11"/>
    <trip id="148" depart="740.00" from="-gneE29" to="gneE29"/>
    <trip id="149" depart="745.00" from="gneE19" to="-gneE0"/>
    <trip id="150" depart="750.00" from="gneE25" to="gneE30"/>
    <trip id="151" depart="755.00" from="gneE0" to="-gneE0"/>
    <trip id="152" depart="760.00" from="-gneE30" to="gneE34"/>
    <trip id="153" depart="765.00" from="gneE2" to="gneE7"/>
    <trip id="154" depart="770.00" from="gneE38" to="gneE27"/>
    <trip id="155" depart="775.00" from="gneE20" to="gneE1"/>
    <trip id="156" depart="780.00" from="gneE35" to="gneE2"/>
    <trip id="157" depart="785.00" from="gneE38" to="gneE30"/>
    <trip id="158" depart="790.00" from="-gneE30" to="gneE27"/>
    <trip id="159" depart="795.00" from="-gneE30" to="-gneE35"/>
    <trip id="160" depart="800.00" from="gneE0" to="-gneE19"/>
    <trip id="161" depart="805.00" from="-gneE30" to="gneE29"/>
    <trip id="162" depart="810.00" from="gneE20" to="-gneE10"/>
    <trip id="163" depart="815.00" from="-gneE4" to="gneE18"/>
    <trip id="164" depart="820.00" from="gneE13" to="gneE29"/>
    <trip id="165" depart="825.00" from="gneE38" to="gneE30"/>
    <trip id="166" depart="830.00" from="-gneE36" to="-gneE0"/>
    <trip id="167" depart="835.00" from="-gneE36" to="gneE30"/>
    <trip id="168" depart="840.00" from="gneE0" to="gneE27"/>
    <trip id="169" depart="845.00" from="-gneE30" to="-gneE20"/>
    <trip id="170" depart="850.00" from="-gneE33" to="gneE29"/>
    <trip id="171" depart="855.00" from="-gneE36" to="-gneE2"/>
    <trip id="172" depart="860.00" from="gneE19" to="-gneE0"/>
    <trip id="173" depart="865.00" from="-gneE36" to="gneE23"/>
    <trip id="174" depart="870.00" from="-gneE13" to="gneE27"/>
    <trip id="175" depart="875.00" from="-gneE2" to="-gneE38"/>
    <trip id="176" depart="880.00" from="-gneE3" to="-gneE35"/>
    <trip id="177" depart="885.00" from="gneE25" to="gneE33"/>
    <trip id="178" depart="890.00" from="-gneE30" to="-gneE13"/>
    <trip id="179" depart="895.00" from="-gneE12" to="gneE17"/>
    <trip id="180" depart="900.00" from="gneE9" to="-gneE38"/>
    <trip id="181" depart="905.00" from="gneE19" to="gneE32"/>
    <trip id="182" depart="910.00" from="gneE19" to="gneE30"/>
    <trip id="183" depart="915.00" from="-gneE12" to="-gneE19"/>
    <trip id="184" depart="920.00" from="-gneE27" to="gneE29"/>
    <trip id="185" depart="925.00" from="gneE10" to="-gneE20"/>
    <trip id="186" depart="930.00" from="gneE20" to="gneE30"/>
    <trip id="187" depart="935.00" from="-gneE29" to="gneE27"/>
    <trip id="188" depart="940.00" from="gneE24" to="-gneE19"/>
    <trip id="189" depart="945.00" from="-gneE27" to="-gneE0"/>
    <trip id="190" depart="950.00" from="-gneE33" to="gneE29"/>
    <trip id="191" depart="955.00" from="gneE20" to="-gneE12"/>
    <trip id="192" depart="960.00" from="gneE20" to="gneE27"/>
    <trip id="193" depart="965.00" from="-gneE27" to="gneE30"/>
    <trip id="194" depart="970.00" from="gneE38" to="gneE27"/>
    <trip id="195" depart="975.00" from="-gneE27" to="gneE7"/>
    <trip id="196" depart="980.00" from="gneE0" to="-gneE35"/>
    <trip id="197" depart="985.00" from="gneE38" to="gneE33"/>
    <trip id="198" depart="990.00" from="gneE19" to="gneE33"/>
    <trip id="199" depart="995.00" from="-gneE30" to="gneE33"/>
    <trip id="200" depart="1000.00" from="gneE0" to="-gneE7"/>
    <trip id="201" depart="1005.00" from="-gneE30" to="gneE36"/>
    <trip id="202" depart="1010.00" from="gneE35" to="-gneE13"/>
    <trip id="203" depart="1015.00" from="-gneE36" to="-gneE0"/>
    <trip id="204" depart="1020.00" from="gneE38" to="-gneE20"/>
    <trip id="205" depart="1025.00" from="-gneE3" to="gneE33"/>
    <trip id="206" depart="1030.00" from="-gneE33" to="gneE36"/>
    <trip id="207" depart="1035.00" from="-gneE26" to="gneE30"/>
    <trip id="208" depart="1040.00" from="-gneE8" to="gneE30"/>
    <trip id="209" depart="1045.00" from="gneE20" to="gneE28"/>
    <trip id="210" depart="1050.00" from="-gneE8" to="gneE33"/>
    <trip id="211" depart="1055.00" from="-gneE27" to="-gneE20"/>
    <trip id="212" depart="1060.00" from="gneE20" to="-gneE35"/>
    <trip id="213" depart="1065.00" from="gneE13" to="-gneE5"/>
    <trip id="214" depart="1070.00" from="gneE24" to="-gneE35"/>
    <trip id="215" depart="1075.00" from="gneE20" to="-gneE3"/>
    <trip id="216" depart="1080.00" from="-gneE30" to="-gneE19"/>
    <trip id="217" depart="1085.00" from="-gneE29" to="-gneE19"/>
    <trip id="218" depart="1090.00" from="gneE0" to="gneE30"/>
    <trip id="219" depart="1095.00" from="-gneE29" to="-gneE20"/>
    <trip id="220" depart="1100.00" from="-gneE7" to="gneE30"/>
    <trip id="221" depart="1105.00" from="gneE5" to="gneE13"/>
    <trip id="222" depart="1110.00" from="-gneE32" to="-gneE18"/>
    <trip id="223" depart="1115.00" from="-gneE29" to="-gneE21"/>
    <trip id="224" depart="1120.00" from="-gneE29" to="-gneE0"/>
    <trip id="225" depart="1125.00" from="gneE20" to="-gneE19"/>
    <trip id="226" depart="1130.00" from="gneE38" to="-gneE8"/>
    <trip id="227" depart="1135.00" from="gneE38" to="gneE24"/>
    <trip id="228" depart="1140.00" from="-gneE40" to="-gneE39"/>
    <trip id="229" depart="1145.00" from="-gneE29" to="-gneE0"/>
    <trip id="230" depart="1150.00" from="gneE35" to="-gneE38"/>
    <trip id="231" depart="1155.00" from="-gneE24" to="gneE27"/>
    <trip id="232" depart="1160.00" from="gneE1" to="-gneE35"/>
    <trip id="233" depart="1165.00" from="gneE8" to="-gneE19"/>
    <trip id="234" depart="1170.00" from="gneE35" to="-gneE20"/>
    <trip id="235" depart="1175.00" from="gneE8" to="-gneE35"/>
    <trip id="236" depart="1180.00" from="gneE19" to="gneE27"/>
    <trip id="237" depart="1185.00" from="-gneE29" to="-gneE20"/>
    <trip id="238" depart="1190.00" from="gneE19" to="-gneE19"/>
    <trip id="239" depart="1195.00" from="-gneE29" to="-gneE11"/>
    <trip id="240" depart="1200.00" from="gneE17" to="-gneE35"/>
    <trip id="241" depart="1205.00" from="-gneE30" to="gneE29"/>
    <trip id="242" depart="1210.00" from="gneE19" to="gneE4"/>
    <trip id="243" depart="1215.00" from="gneE35" to="-gneE11"/>
    <trip id="244" depart="1220.00" from="-gneE29" to="-gneE35"/>
    <trip id="245" depart="1225.00" from="gneE24" to="gneE23"/>
    <trip id="246" depart="1230.00" from="-gneE33" to="-gneE19"/>
    <trip id="247" depart="1235.00" from="gneE20" to="gneE29"/>
    <trip id="248" depart="1240.00" from="-gneE8" to="-gneE12"/>
    <trip id="249" depart="1245.00" from="-gneE33" to="-gneE25"/>
    <trip id="250" depart="1250.00" from="gneE35" to="gneE24"/>
    <trip id="251" depart="1255.00" from="gneE20" to="-gneE3"/>
    <trip id="252" depart="1260.00" from="-gneE17" to="gneE30"/>
    <trip id="253" depart="1265.00" from="gneE13" to="gneE27"/>
    <trip id="254" depart="1270.00" from="-gneE34" to="-gneE35"/>
    <trip id="255" depart="1275.00" from="gneE20" to="gneE36"/>
    <trip id="256" depart="1280.00" from="-gneE33" to="gneE29"/>
    <trip id="257" depart="1285.00" from="gneE35" to="gneE2"/>
    <trip id="258" depart="1290.00" from="-gneE36" to="gneE11"/>
    <trip id="259" depart="1295.00" from="gneE7" to="gneE29"/>
    <trip id="260" depart="1300.00" from="-gneE29" to="-gneE38"/>
    <trip id="261" depart="1305.00" from="-gneE27" to="gneE5"/>
    <trip id="262" depart="1310.00" from="-gneE29" to="gneE2"/>
    <trip id="263" depart="1315.00" from="gneE0" to="-gneE17"/>
    <trip id="264" depart="1320.00" from="gneE35" to="-gneE9"/>
    <trip id="265" depart="1325.00" from="gneE20" to="gneE10"/>
    <trip id="266" depart="1330.00" from="-gneE31" to="gneE33"/>
    <trip id="267" depart="1335.00" from="gneE0" to="-gneE38"/>
    <trip id="268" depart="1340.00" from="gneE38" to="gneE36"/>
    <trip id="269" depart="1345.00" from="-gneE31" to="gneE33"/>
    <trip id="270" depart="1350.00" from="gneE0" to="gneE33"/>
    <trip id="271" depart="1355.00" from="-gneE32" to="-gneE35"/>
    <trip id="272" depart="1360.00" from="gneE13" to="gneE9"/>
    <trip id="273" depart="1365.00" from="-gneE8" to="-gneE19"/>
    <trip id="274" depart="1370.00" from="gneE0" to="-gneE35"/>
    <trip id="275" depart="1375.00" from="gneE0" to="gneE18"/>
    <trip id="276" depart="1380.00" from="-gneE29" to="gneE29"/>
    <trip id="277" depart="1385.00" from="gneE11" to="-gneE22"/>
    <trip id="278" depart="1390.00" from="gneE24" to="gneE29"/>
    <trip id="279" depart="1395.00" from="gneE35" to="-gneE38"/>
    <trip id="280" depart="1400.00" from="gneE2" to="gneE33"/>
    <trip id="281" depart="1405.00" from="gneE6" to="-gneE9"/>
    <trip id="282" depart="1410.00" from="-gneE17" to="gneE1"/>
    <trip id="283" depart="1415.00" from="gneE19" to="-gneE19"/>
    <trip id="284" depart="1420.00" from="-gneE33" to="gneE29"/>
    <trip id="285" depart="1425.00" from="gneE19" to="gneE36"/>
    <trip id="286" depart="1430.00" from="gneE38" to="gneE36"/>
    <trip id="287" depart="1435.00" from="-gneE36" to="-gneE35"/>
    <trip id="288" depart="1440.00" from="gneE20" to="gneE30"/>
    <trip id="289" depart="1445.00" from="gneE38" to="-gneE0"/>
    <trip id="290" depart="1450.00" from="-gneE23" to="gneE27"/>
    <trip id="291" depart="1455.00" from="-gneE27" to="gneE27"/>
    <trip id="292" depart="1460.00" from="gneE20" to="gneE36"/>
    <trip id="293" depart="1465.00" from="-gneE18" to="gneE33"/>
    <trip id="294" depart="1470.00" from="-gneE33" to="-gneE38"/>
    <trip id="295" depart="1475.00" from="-gneE28" to="gneE14"/>
    <trip id="296" depart="1480.00" from="gneE10" to="gneE33"/>
    <trip id="297" depart="1485.00" from="-gneE29" to="-gneE12"/>
    <trip id="298" depart="1490.00" from="gneE38" to="gneE27"/>
    <trip id="299" depart="1495.00" from="-gneE30" to="-gneE25"/>
    <trip id="300" depart="1500.00" from="-gneE10" to="gneE33"/>
    <trip id="301" depart="1505.00" from="gneE38" to="gneE29"/>
    <trip id="302" depart="1510.00" from="-gneE34" to="gneE27"/>
    <trip id="303" depart="1515.00" from="-gneE30" to="gneE34"/>
    <trip id="304" depart="1520.00" from="-gneE29" to="-gneE38"/>
    <trip id="305" depart="1525.00" from="-gneE7" to="-gneE22"/>
    <trip id="306" depart="1530.00" from="gneE11" to="gneE24"/>
    <trip id="307" depart="1535.00" from="gneE8" to="-gneE35"/>
    <trip id="308" depart="1540.00" from="gneE6" to="gneE29"/>
    <trip id="309" depart="1545.00" from="-gneE31" to="gneE23"/>
    <trip id="310" depart="1550.00" from="gneE20" to="gneE30"/>
    <trip id="311" depart="1555.00" from="-gneE2" to="gneE27"/>
    <trip id="312" depart="1560.00" from="-gneE9" to="gneE36"/>
    <trip id="313" depart="1565.00" from="-gneE33" to="gneE33"/>
    <trip id="314" depart="1570.00" from="gneE19" to="-gneE38"/>
    <trip id="315" depart="1575.00" from="gneE19" to="gneE27"/>
    <trip id="316" depart="1580.00" from="gneE20" to="gneE30"/>
    <trip id="317" depart="1585.00" from="gneE19" to="gneE33"/>
    <trip id="318" depart="1590.00" from="gneE19" to="gneE36"/>
    <trip id="319" depart="1595.00" from="gneE19" to="-gneE35"/>
    <trip id="320" depart="1600.00" from="-gneE33" to="gneE30"/>
    <trip id="321" depart="1605.00" from="-gneE29" to="-gneE19"/>
    <trip id="322" depart="1610.00" from="gneE0" to="gneE5"/>
    <trip id="323" depart="1615.00" from="gneE35" to="-gneE6"/>
    <trip id="324" depart="1620.00" from="gneE35" to="gneE30"/>
    <trip id="325" depart="1625.00" from="-gneE33" to="-gneE19"/>
    <trip id="326" depart="1630.00" from="gneE4" to="gneE36"/>
    <trip id="327" depart="1635.00" from="gneE20" to="gneE6"/>
    <trip id="328" depart="1640.00" from="gneE4" to="gneE33"/>
    <trip id="329" depart="1645.00" from="-gneE36" to="gneE33"/>
    <trip id="330" depart="1650.00" from="-gneE11" to="gneE17"/>
    <trip id="331" depart="1655.00" from="gneE20" to="gneE26"/>
    <trip id="332" depart="1660.00" from="-gneE27" to="-gneE22"/>
    <trip id="333" depart="1665.00" from="-gneE13" to="gneE36"/>
    <trip id="334" depart="1670.00" from="-gneE30" to="-gneE1"/>
    <trip id="335" depart="1675.00" from="gneE35" to="gneE4"/>
    <trip id="336" depart="1680.00" from="-gneE33" to="-gneE8"/>
    <trip id="337" depart="1685.00" from="-gneE27" to="gneE36"/>
    <trip id="338" depart="1690.00" from="gneE20" to="gneE30"/>
    <trip id="339" depart="1695.00" from="-gneE27" to="gneE29"/>
    <trip id="340" depart="1700.00" from="gneE0" to="gneE6"/>
    <trip id="341" depart="1705.00" from="-gneE36" to="-gneE38"/>
    <trip id="342" depart="1710.00" from="-gneE29" to="-gneE19"/>
    <trip id="343" depart="1715.00" from="gneE19" to="gneE27"/>
    <trip id="344" depart="1720.00" from="gneE17" to="-gneE0"/>
    <trip id="345" depart="1725.00" from="-gneE27" to="gneE23"/>
    <trip id="346" depart="1730.00" from="-gneE23" to="gneE30"/>
    <trip id="347" depart="1735.00" from="-gneE29" to="-gneE20"/>
    <trip id="348" depart="1740.00" from="gneE38" to="-gneE35"/>
    <trip id="349" depart="1745.00" from="-gneE28" to="gneE36"/>
    <trip id="350" depart="1750.00" from="-gneE1" to="gneE36"/>
    <trip id="351" depart="1755.00" from="-gneE27" to="-gneE19"/>
    <trip id="352" depart="1760.00" from="-gneE30" to="-gneE20"/>
    <trip id="353" depart="1765.00" from="gneE19" to="-gneE0"/>
    <trip id="354" depart="1770.00" from="-gneE11" to="gneE33"/>
    <trip id="355" depart="1775.00" from="-gneE30" to="-gneE35"/>
    <trip id="356" depart="1780.00" from="-gneE29" to="-gneE0"/>
    <trip id="357" depart="1785.00" from="gneE24" to="-gneE5"/>
    <trip id="358" depart="1790.00" from="-gneE27" to="gneE1"/>
    <trip id="359" depart="1795.00" from="-gneE6" to="-gneE38"/>
    <trip id="360" depart="1800.00" from="gneE20" to="-gneE8"/>
    <trip id="361" depart="1805.00" from="-gneE25" to="gneE27"/>
    <trip id="362" depart="1810.00" from="gneE19" to="gneE2"/>
    <trip id="363" depart="1815.00" from="-gneE33" to="gneE9"/>
    <trip id="364" depart="1820.00" from="gneE19" to="-gneE18"/>
    <trip id="365" depart="1825.00" from="gneE20" to="gneE36"/>
    <trip id="366" depart="1830.00" from="gneE19" to="gneE30"/>
    <trip id="367" depart="1835.00" from="gneE20" to="-gneE20"/>
    <trip id="368" depart="1840.00" from="-gneE36" to="-gneE19"/>
    <trip id="369" depart="1845.00" from="gneE35" to="-gneE17"/>
    <trip id="370" depart="1850.00" from="-gneE27" to="gneE30"/>
    <trip id="371" depart="1855.00" from="gneE13" to="gneE22"/>
    <trip id="372" depart="1860.00" from="-gneE33" to="-gneE19"/>
    <trip id="373" depart="1865.00" from="-gneE36" to="gneE29"/>
    <trip id="374" depart="1870.00" from="gneE25" to="gneE36"/>
    <trip id="375" depart="1875.00" from="gneE18" to="-gneE38"/>
    <trip id="376" depart="1880.00" from="gneE12" to="-gneE20"/>
    <trip id="377" depart="1885.00" from="gneE19" to="-gneE20"/>
    <trip id="378" depart="1890.00" from="-gneE27" to="gneE34"/>
    <trip id="379" depart="1895.00" from="-gneE36" to="gneE30"/>
    <trip id="380" depart="1900.00" from="gneE11" to="gneE33"/>
    <trip id="381" depart="1905.00" from="gneE35" to="gneE5"/>
    <trip id="382" depart="1910.00" from="gneE35" to="gneE27"/>
    <trip id="383" depart="1915.00" from="gneE19" to="-gneE0"/>
    <trip id="384" depart="1920.00" from="-gneE30" to="-gneE20"/>
    <trip id="385" depart="1925.00" from="gneE20" to="-gneE35"/>
    <trip id="386" depart="1930.00" from="-gneE33" to="-gneE0"/>
    <trip id="387" depart="1935.00" from="gneE38" to="gneE23"/>
    <trip id="388" depart="1940.00" from="-gneE36" to="-gneE19"/>
    <trip id="389" depart="1945.00" from="gneE19" to="-gneE0"/>
    <trip id="390" depart="1950.00" from="gneE24" to="-gneE20"/>
    <trip id="391" depart="1955.00" from="-gneE36" to="gneE30"/>
    <trip id="392" depart="1960.00" from="-gneE26" to="-gneE0"/>
    <trip id="393" depart="1965.00" from="-gneE29" to="gneE27"/>
    <trip id="394" depart="1970.00" from="gneE20" to="-gneE3"/>
    <trip id="395" depart="1975.00" from="gneE19" to="-gneE7"/>
    <trip id="396" depart="1980.00" from="gneE25" to="-gneE19"/>
    <trip id="397" depart="1985.00" from="gneE20" to="-gneE7"/>
    <trip id="398" depart="1990.00" from="gneE2" to="-gneE0"/>
    <trip id="399" depart="1995.00" from="-gneE36" to="gneE27"/>
    <trip id="400" depart="2000.00" from="-gneE10" to="-gneE35"/>
    <trip id="401" depart="2005.00" from="-gneE3" to="-gneE19"/>
    <trip id="402" depart="2010.00" from="-gneE30" to="-gneE35"/>
    <trip id="403" depart="2015.00" from="-gneE10" to="gneE30"/>
    <trip id="404" depart="2020.00" from="-gneE29" to="-gneE38"/>
    <trip id="405" depart="2025.00" from="gneE20" to="gneE1"/>
    <trip id="406" depart="2030.00" from="gneE35" to="gneE33"/>
    <trip id="407" depart="2035.00" from="-gneE24" to="gneE36"/>
    <trip id="408" depart="2040.00" from="-gneE18" to="-gneE0"/>
    <trip id="409" depart="2045.00" from="gneE12" to="gneE24"/>
    <trip id="410" depart="2050.00" from="-gneE27" to="-gneE0"/>
    <trip id="411" depart="2055.00" from="-gneE33" to="gneE33"/>
    <trip id="412" depart="2060.00" from="gneE19" to="gneE33"/>
    <trip id="413" depart="2065.00" from="-gneE36" to="-gneE35"/>
    <trip id="414" depart="2070.00" from="-gneE33" to="-gneE35"/>
    <trip id="415" depart="2075.00" from="-gneE29" to="gneE10"/>
    <trip id="416" depart="2080.00" from="-gneE27" to="gneE10"/>
    <trip id="417" depart="2085.00" from="gneE38" to="-gneE38"/>
    <trip id="418" depart="2090.00" from="gneE21" to="gneE33"/>
    <trip id="419" depart="2095.00" from="gneE35" to="-gneE22"/>
    <trip id="420" depart="2100.00" from="-gneE28" to="-gneE20"/>
    <trip id="421" depart="2105.00" from="gneE18" to="gneE30"/>
    <trip id="422" depart="2110.00" from="gneE19" to="-gneE20"/>
    <trip id="423" depart="2115.00" from="gneE3" to="-gneE8"/>
    <trip id="424" depart="2120.00" from="gneE25" to="gneE30"/>
    <trip id="425" depart="2125.00" from="gneE10" to="gneE27"/>
    <trip id="426" depart="2130.00" from="gneE19" to="gneE36"/>
    <trip id="427" depart="2135.00" from="gneE19" to="-gneE19"/>
    <trip id="428" depart="2140.00" from="-gneE33" to="-gneE31"/>
    <trip id="429" depart="2145.00" from="-gneE25" to="gneE36"/>
    <trip id="430" depart="2150.00" from="gneE38" to="gneE27"/>
    <trip id="431" depart="2155.00" from="gneE0" to="gneE33"/>
    <trip id="432" depart="2160.00" from="gneE35" to="gneE29"/>
    <trip id="433" depart="2165.00" from="-gneE33" to="-gneE5"/>
    <trip id="434" depart="2170.00" from="-gneE28" to="-gneE1"/>
    <trip id="435" depart="2175.00" from="-gneE27" to="gneE36"/>
    <trip id="436" depart="2180.00" from="-gneE34" to="gneE3"/>
    <trip id="437" depart="2185.00" from="gneE0" to="-gneE20"/>
    <trip id="438" depart="2190.00" from="-gneE29" to="-gneE38"/>
    <trip id="439" depart="2195.00" from="-gneE33" to="gneE27"/>
    <trip id="440" depart="2200.00" from="-gneE23" to="-gneE17"/>
    <trip id="441" depart="2205.00" from="gneE20" to="gneE29"/>
    <trip id="442" depart="2210.00" from="gneE38" to="gneE36"/>
    <trip id="443" depart="2215.00" from="-gneE33" to="gneE26"/>
    <trip id="444" depart="2220.00" from="-gneE27" to="-gneE38"/>
    <trip id="445" depart="2225.00" from="gneE4" to="gneE29"/>
    <trip id="446" depart="2230.00" from="-gneE36" to="gneE27"/>
    <trip id="447" depart="2235.00" from="-gneE36" to="gneE33"/>
    <trip id="448" depart="2240.00" from="gneE35" to="gneE29"/>
    <trip id="449" depart="2245.00" from="gneE35" to="gneE30"/>
    <trip id="450" depart="2250.00" from="gneE20" to="gneE13"/>
    <trip id="451" depart="2255.00" from="-gneE36" to="-gneE38"/>
    <trip id="452" depart="2260.00" from="-gneE29" to="-gneE20"/>
    <trip id="453" depart="2265.00" from="-gneE30" to="-gneE19"/>
    <trip id="454" depart="2270.00" from="-gneE25" to="gneE34"/>
    <trip id="455" depart="2275.00" from="-gneE27" to="gneE30"/>
    <trip id="456" depart="2280.00" from="gneE35" to="gneE36"/>
    <trip id="457" depart="2285.00" from="-gneE17" to="-gneE35"/>
    <trip id="458" depart="2290.00" from="-gneE36" to="-gneE19"/>
    <trip id="459" depart="2295.00" from="gneE35" to="gneE30"/>
    <trip id="460" depart="2300.00" from="gneE35" to="-gneE2"/>
    <trip id="461" depart="2305.00" from="-gneE40" to="-gneE39"/>